/*--------------------------------*- C++ -*----------------------------------*\
  =========                 |
  \\      /  F ield         | OpenFOAM: The Open Source CFD Toolbox
   \\    /   O peration     | Website:  https://openfoam.org
    \\  /    A nd           | Version:  12
     \\/     M anipulation  |
\*---------------------------------------------------------------------------*/
FoamFile
{
    format      ascii;
    class       uniformDimensionedVectorField;
    location    "constant";
    object      g;
}

dimensions      [0 1 -2 0 0 0 0];

// Gravity in -Y direction — disc lies in XY plane
// Y is our vertical axis
value           (0 -9.81 0);

// ************************************************************************* //
